molecule3994
     RDKit          3D

 35 39  0  0  0  0  0  0  0  0999 V2000
    2.5901   -2.6560    0.1764 O   0  0  0  0  0  0  0  0  0  0  0  0
    1.3597   -2.6298    0.0646 C   0  0  0  0  0  0  0  0  0  0  0  0
    0.6884   -1.2236   -0.0145 C   0  0  0  0  0  0  0  0  0  0  0  0
    1.4647   -0.1390   -0.0463 C   0  0  0  0  0  0  0  0  0  0  0  0
    0.8582    1.2163   -0.0949 C   0  0  0  0  0  0  0  0  0  0  0  0
   -0.4688    1.3739   -0.0940 C   0  0  0  0  0  0  0  0  0  0  0  0
   -1.3222    0.1958   -0.0512 C   0  0  0  0  0  0  0  0  0  0  0  0
   -2.7883    0.2857   -0.0338 C   0  0  0  0  0  0  0  0  0  0  0  0
   -3.4074    1.4632   -0.0470 C   0  0  0  0  0  0  0  0  0  0  0  0
   -4.8769    1.5144   -0.0224 C   0  0  0  0  0  0  0  0  0  0  0  0
   -5.5882    0.3871    0.0136 C   0  0  0  0  0  0  0  0  0  0  0  0
   -4.9076   -0.9076    0.0284 C   0  0  0  0  0  0  0  0  0  0  0  0
   -3.5773   -0.9565    0.0063 C   0  0  0  0  0  0  0  0  0  0  0  0
   -0.7724   -1.0035   -0.0181 C   0  0  0  0  0  0  0  0  0  0  0  0
    0.6519   -3.9287    0.0990 N   0  0  0  0  0  0  0  0  0  0  0  0
   -0.7707   -3.9921   -0.0261 C   0  0  0  0  0  0  0  0  0  0  0  0
   -1.3160   -5.2602   -0.5663 C   0  0  0  0  0  0  0  0  0  0  0  0
   -0.8400   -6.4084    0.2990 C   0  0  0  0  0  0  0  0  0  0  0  0
   -1.6274   -7.7088   -0.0330 C   0  0  0  0  0  0  0  0  0  0  0  0
   -1.0001   -8.6843   -0.4599 O   0  0  0  0  0  0  0  0  0  0  0  0
   -3.1015   -7.7965    0.0547 N   0  0  0  0  0  0  0  0  0  0  0  0
   -3.8981   -6.6657    0.5725 C   0  0  0  0  0  0  0  0  0  0  0  0
   -5.3545   -6.9403    0.8565 C   0  0  0  0  0  0  0  0  0  0  0  0
   -5.9740   -7.7422   -0.2774 C   0  0  0  0  0  0  0  0  0  0  0  0
   -7.4782   -7.8681   -0.0382 C   0  0  0  0  0  0  0  0  0  0  0  0
   -7.9428   -8.9757    0.2517 O   0  0  0  0  0  0  0  0  0  0  0  0
   -8.3663   -6.7300   -0.0640 N   0  0  0  0  0  0  0  0  0  0  0  0
   -9.7610   -6.8583    0.2752 C   0  0  0  0  0  0  0  0  0  0  0  0
  -10.3205   -5.4998   -0.2068 C   0  0  0  0  0  0  0  0  0  0  0  0
   -9.1645   -4.5668    0.1341 C   0  0  0  0  0  0  0  0  0  0  0  0
   -7.9809   -5.3710   -0.4305 C   0  0  0  0  0  0  0  0  0  0  0  0
   -5.2824   -9.1120   -0.1539 C   0  0  0  0  0  0  0  0  0  0  0  0
   -3.7552   -9.0014   -0.4728 C   0  0  0  0  0  0  0  0  0  0  0  0
    0.6663   -6.5018   -0.0374 C   0  0  0  0  0  0  0  0  0  0  0  0
    1.4206   -5.1683    0.3590 C   0  0  0  0  0  0  0  0  0  0  0  0
  1  2  2  0
  2  3  1  0
  3  4  2  0
  4  5  1  0
  5  6  2  0
  6  7  1  0
  7  8  1  0
  8  9  2  0
  9 10  1  0
 10 11  2  0
 11 12  1  0
 12 13  2  0
  7 14  2  0
  2 15  1  0
 15 16  1  0
 16 17  1  0
 17 18  1  0
 18 19  1  0
 19 20  2  0
 19 21  1  0
 21 22  1  0
 22 23  1  0
 23 24  1  0
 24 25  1  0
 25 26  2  0
 25 27  1  0
 27 28  1  0
 28 29  1  0
 29 30  1  0
 30 31  1  0
 24 32  1  0
 32 33  1  0
 18 34  1  0
 34 35  1  0
 14  3  1  0
 35 15  1  0
 13  8  1  0
 33 21  1  0
 31 27  1  0
M  END
