molecule13836
     RDKit          2D

 37 42  0  0  0  0  0  0  0  0999 V2000
   -6.3650   -8.3196    0.0000 O   0  0  0  0  0  0  0  0  0  0  0  0
   -6.5218   -6.8278    0.0000 C   0  0  0  0  0  0  0  0  0  0  0  0
   -5.3083   -5.9462    0.0000 C   0  0  0  0  0  0  0  0  0  0  0  0
   -5.3083   -4.4462    0.0000 C   0  0  0  0  0  0  0  0  0  0  0  0
   -3.8817   -3.9826    0.0000 C   0  0  0  0  0  0  0  0  0  0  0  0
   -3.0000   -5.1962    0.0000 C   0  0  0  0  0  0  0  0  0  0  0  0
   -1.5000   -5.1962    0.0000 C   0  0  0  0  0  0  0  0  0  0  0  0
   -0.7500   -6.4952    0.0000 O   0  0  0  0  0  0  0  0  0  0  0  0
   -0.7500   -3.8971    0.0000 N   0  0  0  0  0  0  0  0  0  0  0  0
    0.7500   -3.8971    0.0000 C   0  0  0  0  0  0  0  0  0  0  0  0
    1.5000   -2.5981    0.0000 C   0  0  0  0  0  0  0  0  0  0  0  0
    0.7500   -1.2990    0.0000 C   0  0  0  0  0  0  0  0  0  0  0  0
    1.5000    0.0000    0.0000 C   0  0  0  0  0  0  0  0  0  0  0  0
    0.7500    1.2990    0.0000 C   0  0  0  0  0  0  0  0  0  0  0  0
   -0.7500    1.2990    0.0000 C   0  0  0  0  0  0  0  0  0  0  0  0
   -1.5000    0.0000    0.0000 C   0  0  0  0  0  0  0  0  0  0  0  0
   -0.7500   -1.2990    0.0000 C   0  0  0  0  0  0  0  0  0  0  0  0
   -1.5000   -2.5981    0.0000 C   0  0  0  0  0  0  0  0  0  0  0  0
   -3.8817   -6.4097    0.0000 C   0  0  0  0  0  0  0  0  0  0  0  0
   -7.8921   -6.2177    0.0000 N   0  0  0  0  0  0  0  0  0  0  0  0
   -8.0489   -4.7259    0.0000 C   0  0  0  0  0  0  0  0  0  0  0  0
   -9.4192   -4.1158    0.0000 C   0  0  0  0  0  0  0  0  0  0  0  0
  -10.6327   -4.9975    0.0000 C   0  0  0  0  0  0  0  0  0  0  0  0
  -12.0031   -4.3874    0.0000 C   0  0  0  0  0  0  0  0  0  0  0  0
  -13.2166   -5.2691    0.0000 O   0  0  0  0  0  0  0  0  0  0  0  0
  -12.1599   -2.8956    0.0000 N   0  0  0  0  0  0  0  0  0  0  0  0
  -10.9463   -2.0139    0.0000 C   0  0  0  0  0  0  0  0  0  0  0  0
  -11.1031   -0.5222    0.0000 C   0  0  0  0  0  0  0  0  0  0  0  0
  -12.4734    0.0879    0.0000 C   0  0  0  0  0  0  0  0  0  0  0  0
  -12.6302    1.5797    0.0000 C   0  0  0  0  0  0  0  0  0  0  0  0
  -14.0005    2.1898    0.0000 C   0  0  0  0  0  0  0  0  0  0  0  0
  -15.2141    1.3081    0.0000 C   0  0  0  0  0  0  0  0  0  0  0  0
  -15.0573   -0.1836    0.0000 C   0  0  0  0  0  0  0  0  0  0  0  0
  -13.6870   -0.7937    0.0000 C   0  0  0  0  0  0  0  0  0  0  0  0
  -13.5302   -2.2855    0.0000 C   0  0  0  0  0  0  0  0  0  0  0  0
  -10.4760   -6.4893    0.0000 C   0  0  0  0  0  0  0  0  0  0  0  0
   -9.1056   -7.0994    0.0000 C   0  0  0  0  0  0  0  0  0  0  0  0
  1  2  2  0
  2  3  1  0
  3  4  1  0
  4  5  1  0
  5  6  1  0
  6  7  1  0
  7  8  2  0
  7  9  1  0
  9 10  1  0
 10 11  1  0
 11 12  1  0
 12 13  2  0
 13 14  1  0
 14 15  2  0
 15 16  1  0
 16 17  2  0
 17 18  1  0
  6 19  1  0
  2 20  1  0
 20 21  1  0
 21 22  1  0
 22 23  1  0
 23 24  1  0
 24 25  2  0
 24 26  1  0
 26 27  1  0
 27 28  1  0
 28 29  1  0
 29 30  2  0
 30 31  1  0
 31 32  2  0
 32 33  1  0
 33 34  2  0
 34 35  1  0
 23 36  1  0
 36 37  1  0
 19  3  1  0
 37 20  1  0
 18  9  1  0
 35 26  1  0
 17 12  1  0
 34 29  1  0
M  END
