molecule12229
     RDKit          2D

 37 41  0  0  0  0  0  0  0  0999 V2000
   -7.7942   -4.5850    0.0000 O   0  0  0  0  0  0  0  0  0  0  0  0
   -6.4952   -3.8350    0.0000 C   0  0  0  0  0  0  0  0  0  0  0  0
   -5.1962   -4.5850    0.0000 N   0  0  0  0  0  0  0  0  0  0  0  0
   -5.1962   -6.0850    0.0000 C   0  0  0  0  0  0  0  0  0  0  0  0
   -3.8971   -6.8350    0.0000 C   0  0  0  0  0  0  0  0  0  0  0  0
   -3.8971   -8.3350    0.0000 C   0  0  0  0  0  0  0  0  0  0  0  0
   -2.5981   -9.0850    0.0000 C   0  0  0  0  0  0  0  0  0  0  0  0
   -1.2990   -8.3350    0.0000 C   0  0  0  0  0  0  0  0  0  0  0  0
   -1.2990   -6.8350    0.0000 C   0  0  0  0  0  0  0  0  0  0  0  0
    0.0000   -6.0850    0.0000 C   0  0  0  0  0  0  0  0  0  0  0  0
    1.2990   -6.8350    0.0000 O   0  0  0  0  0  0  0  0  0  0  0  0
    0.0000   -4.5850    0.0000 N   0  0  0  0  0  0  0  0  0  0  0  0
    1.3515   -3.9342    0.0000 C   0  0  0  0  0  0  0  0  0  0  0  0
    1.6852   -2.4718    0.0000 C   0  0  0  0  0  0  0  0  0  0  0  0
    0.7500   -1.2990    0.0000 C   0  0  0  0  0  0  0  0  0  0  0  0
    1.5000    0.0000    0.0000 C   0  0  0  0  0  0  0  0  0  0  0  0
    0.7500    1.2990    0.0000 C   0  0  0  0  0  0  0  0  0  0  0  0
   -0.7500    1.2990    0.0000 C   0  0  0  0  0  0  0  0  0  0  0  0
   -1.5000    0.0000    0.0000 C   0  0  0  0  0  0  0  0  0  0  0  0
   -0.7500   -1.2990    0.0000 C   0  0  0  0  0  0  0  0  0  0  0  0
   -1.6852   -2.4718    0.0000 C   0  0  0  0  0  0  0  0  0  0  0  0
   -1.3515   -3.9342    0.0000 C   0  0  0  0  0  0  0  0  0  0  0  0
   -2.5981   -6.0850    0.0000 C   0  0  0  0  0  0  0  0  0  0  0  0
   -6.4952   -2.3350    0.0000 C   0  0  0  0  0  0  0  0  0  0  0  0
   -5.1962   -1.5850    0.0000 C   0  0  0  0  0  0  0  0  0  0  0  0
   -5.1962   -0.0850    0.0000 C   0  0  0  0  0  0  0  0  0  0  0  0
   -6.4952    0.6650    0.0000 C   0  0  0  0  0  0  0  0  0  0  0  0
   -7.7942   -0.0850    0.0000 C   0  0  0  0  0  0  0  0  0  0  0  0
   -9.0933    0.6650    0.0000 C   0  0  0  0  0  0  0  0  0  0  0  0
  -10.3923   -0.0850    0.0000 O   0  0  0  0  0  0  0  0  0  0  0  0
   -9.0933    2.1650    0.0000 N   0  0  0  0  0  0  0  0  0  0  0  0
   -7.7942    2.9150    0.0000 C   0  0  0  0  0  0  0  0  0  0  0  0
   -7.7942    4.4150    0.0000 C   0  0  0  0  0  0  0  0  0  0  0  0
   -9.0933    5.1650    0.0000 O   0  0  0  0  0  0  0  0  0  0  0  0
  -10.3923    4.4150    0.0000 C   0  0  0  0  0  0  0  0  0  0  0  0
  -10.3923    2.9150    0.0000 C   0  0  0  0  0  0  0  0  0  0  0  0
   -7.7942   -1.5850    0.0000 C   0  0  0  0  0  0  0  0  0  0  0  0
  1  2  2  0
  2  3  1  0
  3  4  1  0
  4  5  1  0
  5  6  2  0
  6  7  1  0
  7  8  2  0
  8  9  1  0
  9 10  1  0
 10 11  2  0
 10 12  1  0
 12 13  1  0
 13 14  1  0
 14 15  1  0
 15 16  2  0
 16 17  1  0
 17 18  2  0
 18 19  1  0
 19 20  2  0
 20 21  1  0
 21 22  1  0
  9 23  2  0
  2 24  1  0
 24 25  2  0
 25 26  1  0
 26 27  2  0
 27 28  1  0
 28 29  1  0
 29 30  2  0
 29 31  1  0
 31 32  1  0
 32 33  1  0
 33 34  1  0
 34 35  1  0
 35 36  1  0
 28 37  2  0
 23  5  1  0
 37 24  1  0
 22 12  1  0
 36 31  1  0
 20 15  1  0
M  END
